Circuit: * C:\Users\Adam Ghatta\Downloads\Amplifier.asc

Direct Newton iteration for .op point succeeded.

Date: Mon Apr 29 19:38:04 2024
Total elapsed time: 0.099 seconds.

tnom = 27
temp = 27
method = modified trap
totiter = 8005
traniter = 7990
tranpoints = 2681
accept = 2184
rejected = 497
matrix size = 10
fillins = 1
solver = Normal
Avg thread counts: 1.5/2.5/2.6/1.5
Matrix Compiler1: 988 bytes object code size  0.2/0.2/[0.1]
Matrix Compiler2: off  [0.1]/0.2/0.1

