Circuit: * C:\Users\Adam Ghatta\SpiceFiles\BJT_Amplifier.asc

Warning: Multiple definitions of model "2scr375p" Type: BJT
Warning: Multiple definitions of model "bc857b" Type: BJT
Warning: Multiple definitions of model "bc847c" Type: BJT
Warning: Multiple definitions of model "bc847b" Type: BJT
Direct Newton iteration for .op point succeeded.

Date: Sun Jun  2 16:39:34 2024
Total elapsed time: 0.082 seconds.

tnom = 27
temp = 27
method = modified trap
totiter = 7771
traniter = 7762
tranpoints = 3882
accept = 2418
rejected = 1464
matrix size = 9
fillins = 0
solver = Normal
Avg thread counts: 1.5/2.0/2.0/1.5
Matrix Compiler1: 340 bytes object code size  0.2/0.1/[0.1]
Matrix Compiler2: 619 bytes object code size  0.1/0.1/[0.1]

