Circuit: * C:\Users\Adam Ghatta\Downloads\Draft4.asc

Direct Newton iteration for .op point succeeded.

Date: Mon Apr 29 19:43:53 2024
Total elapsed time: 0.075 seconds.

tnom = 27
temp = 27
method = modified trap
totiter = 2100
traniter = 2088
tranpoints = 1045
accept = 1045
rejected = 0
matrix size = 10
fillins = 1
solver = Normal
Avg thread counts: 2.9/4.8/4.8/2.9
Matrix Compiler1: 534 bytes object code size  0.2/0.2/[0.1]
Matrix Compiler2: 944 bytes object code size  0.1/0.2/[0.1]

