Circuit: * C:\Users\Adam Ghatta\SpiceFiles\Draft4.asc

Direct Newton iteration for .op point succeeded.

Date: Sat Jun  1 14:14:19 2024
Total elapsed time: 0.054 seconds.

tnom = 27
temp = 27
method = modified trap
totiter = 2093
traniter = 2090
tranpoints = 1046
accept = 1046
rejected = 0
matrix size = 3
fillins = 0
solver = Normal
Avg thread counts: 2.9/4.8/4.8/2.9
Matrix Compiler1:       3 opcodes  0.1/[0.1]/0.1
Matrix Compiler2:      15 opcodes  0.1/[0.1]/0.1

