Circuit: * C:\Users\Adam Ghatta\SpiceFiles\Rectifier.asc

.OP point found by inspection.

vrms: RMS(v(vout))=3.3279 FROM 0 TO 0.01


Date: Thu May  2 19:04:37 2024
Total elapsed time: 0.061 seconds.

tnom = 27
temp = 27
method = modified trap
totiter = 2540
traniter = 2540
tranpoints = 1083
accept = 1077
rejected = 6
matrix size = 4
fillins = 1
solver = Normal
Avg thread counts: 2.6/4.7/4.7/2.6
Matrix Compiler1:      12 opcodes  0.1/[0.1]/0.1
Matrix Compiler2: off  [0.0]/0.1/0.1

