Circuit: * C:\Users\Adam Ghatta\Downloads\Draft2.asc

Direct Newton iteration for .op point succeeded.

Date: Mon Apr 29 19:35:43 2024
Total elapsed time: 0.100 seconds.

tnom = 27 
temp = 27
method = modified trap
totiter = 8568
traniter = 8553
tranpoints = 2865
accept = 2322
rejected = 543
matrix size = 10
fillins = 1
solver = Normal
Avg thread counts: 1.5/2.4/2.5/1.5
Matrix Compiler1: 988 bytes object code size  0.2/0.2/[0.1]
Matrix Compiler2: 966 bytes object code size  0.1/0.2/[0.1]

